*SPEF "ieee 1481-1999"
*DESIGN "serdes_8bit"
*DATE "17:23:07 Wednesday January 28, 2026"
*VENDOR "The OpenROAD Project"
*PROGRAM "OpenROAD"
*VERSION "edf00dff99f6c40d67a30c0e22a8191c5d2ed9d6"
*DESIGN_FLOW "NAME_SCOPE LOCAL" "PIN_CAP NONE"
*DIVIDER /
*DELIMITER :
*BUS_DELIMITER []
*T_UNIT 1 NS
*C_UNIT 1 PF
*R_UNIT 1 OHM
*L_UNIT 1 HENRY

*NAME_MAP
*3 bus_free_flag
*4 clk
*5 data_8bit_in[0]
*6 data_8bit_in[1]
*7 data_8bit_in[2]
*8 data_8bit_in[3]
*9 data_8bit_in[4]
*10 data_8bit_in[5]
*11 data_8bit_in[6]
*12 data_8bit_in[7]
*13 data_8bit_out[0]
*14 data_8bit_out[1]
*15 data_8bit_out[2]
*16 data_8bit_out[3]
*17 data_8bit_out[4]
*18 data_8bit_out[5]
*19 data_8bit_out[6]
*20 data_8bit_out[7]
*21 data_en
*22 rst_n
*23 _000_
*24 _001_
*25 _002_
*26 _003_
*27 _004_
*28 _005_
*29 _006_
*30 _007_
*31 _008_
*32 _009_
*33 _010_
*34 _011_
*35 _012_
*36 _013_
*37 _014_
*38 _015_
*39 _016_
*40 _017_
*41 _018_
*42 _019_
*43 _020_
*44 _021_
*45 _022_
*46 _023_
*47 _024_
*48 _025_
*49 _026_
*50 _027_
*51 _028_
*52 _029_
*53 _030_
*54 _031_
*55 _032_
*56 _033_
*57 _034_
*58 _035_
*59 _036_
*60 _037_
*61 _038_
*62 _039_
*63 _040_
*64 _041_
*65 _042_
*66 _043_
*67 _044_
*68 _045_
*69 _046_
*70 _047_
*71 _048_
*72 _049_
*73 _050_
*74 _051_
*75 _052_
*76 _053_
*77 _054_
*78 _055_
*79 _056_
*80 _057_
*81 _058_
*82 _059_
*83 _060_
*84 _061_
*85 _062_
*86 _063_
*87 _064_
*88 _065_
*89 _066_
*90 _067_
*91 _068_
*92 _069_
*93 _070_
*94 _071_
*95 _072_
*96 _073_
*97 _074_
*98 _075_
*99 _076_
*100 _077_
*101 _078_
*102 _079_
*103 _080_
*104 _081_
*105 _082_
*106 _083_
*107 _084_
*108 _085_
*109 _086_
*110 _087_
*111 _088_
*112 _089_
*113 _090_
*114 _091_
*115 _092_
*116 _093_
*117 _094_
*118 _095_
*119 _096_
*120 _097_
*121 _098_
*122 _099_
*123 _100_
*124 _101_
*125 _102_
*126 _103_
*127 _104_
*128 _105_
*129 _106_
*130 _107_
*131 _108_
*132 _109_
*133 _110_
*134 _111_
*135 _112_
*136 _113_
*137 _114_
*138 _115_
*139 _116_
*140 _117_
*141 _118_
*142 _119_
*143 _120_
*144 _121_
*145 _122_
*146 _123_
*147 _124_
*148 _125_
*149 _126_
*150 _127_
*151 _128_
*152 _129_
*153 _130_
*154 _131_
*155 _132_
*156 _133_
*157 _134_
*158 _135_
*159 _136_
*160 _137_
*161 _138_
*162 _139_
*163 _140_
*164 _141_
*165 _142_
*166 _143_
*167 _144_
*168 _145_
*169 _146_
*170 _147_
*171 _148_
*172 _149_
*173 _150_
*174 _151_
*175 _152_
*176 _153_
*177 _154_
*178 _155_
*179 _156_
*180 _157_
*181 _158_
*182 _159_
*183 _160_
*184 _161_
*185 _162_
*186 _163_
*187 _164_
*188 _165_
*189 _166_
*190 _167_
*191 _168_
*192 _169_
*193 _170_
*194 _171_
*195 _172_
*196 _173_
*197 _174_
*198 _175_
*199 _176_
*200 _177_
*201 _178_
*202 _179_
*203 _180_
*204 _181_
*205 _182_
*206 _183_
*207 _184_
*208 _185_
*209 _186_
*210 _187_
*211 _188_
*212 _189_
*213 _190_
*214 _191_
*215 _192_
*216 _193_
*217 _194_
*218 _195_
*219 _196_
*220 _197_
*221 _198_
*222 _199_
*223 _200_
*224 _201_
*225 _202_
*226 _203_
*227 _204_
*228 _205_
*229 _206_
*230 _207_
*231 clknet_0_clk
*232 clknet_3_0__leaf_clk
*233 clknet_3_1__leaf_clk
*234 clknet_3_2__leaf_clk
*235 clknet_3_3__leaf_clk
*236 clknet_3_4__leaf_clk
*237 clknet_3_5__leaf_clk
*238 clknet_3_6__leaf_clk
*239 clknet_3_7__leaf_clk
*240 controller_unit\.counter\[0\]
*241 controller_unit\.counter\[1\]
*242 controller_unit\.counter\[2\]
*243 controller_unit\.counter\[3\]
*244 controller_unit\.load_en
*245 controller_unit\.par_en
*246 controller_unit\.q\[1\]
*247 controller_unit\.q\[3\]
*248 controller_unit\.q\[5\]
*249 data_10b_out\[0\]
*250 data_10b_out\[1\]
*251 data_10b_out\[2\]
*252 data_10b_out\[3\]
*253 data_10b_out\[4\]
*254 data_10b_out\[5\]
*255 data_10b_out\[6\]
*256 data_10b_out\[7\]
*257 data_10b_out\[8\]
*258 data_10b_out\[9\]
*259 data_8b_out\[0\]
*260 data_8b_out\[1\]
*261 data_8b_out\[2\]
*262 data_8b_out\[3\]
*263 data_8b_out\[4\]
*264 data_8b_out\[5\]
*265 data_8b_out\[6\]
*266 data_8b_out\[7\]
*267 deserializer_u1\.par_out\[0\]
*268 deserializer_u1\.par_out\[1\]
*269 deserializer_u1\.par_out\[2\]
*270 deserializer_u1\.par_out\[3\]
*271 deserializer_u1\.par_out\[4\]
*272 deserializer_u1\.par_out\[5\]
*273 deserializer_u1\.par_out\[6\]
*274 deserializer_u1\.par_out\[7\]
*275 deserializer_u1\.par_out\[8\]
*276 deserializer_u1\.par_out\[9\]
*277 deserializer_u1\.ser_in
*278 deserializer_u1\.shift_reg\[0\]
*279 deserializer_u1\.shift_reg\[1\]
*280 deserializer_u1\.shift_reg\[2\]
*281 deserializer_u1\.shift_reg\[3\]
*282 deserializer_u1\.shift_reg\[4\]
*283 deserializer_u1\.shift_reg\[5\]
*284 deserializer_u1\.shift_reg\[6\]
*285 deserializer_u1\.shift_reg\[7\]
*286 deserializer_u1\.shift_reg\[8\]
*287 deserializer_u1\.shift_reg\[9\]
*288 deserializer_u2\.temp_3b\[0\]
*289 deserializer_u2\.temp_3b\[1\]
*290 deserializer_u2\.temp_3b\[2\]
*291 deserializer_u2\.temp_5b\[0\]
*292 deserializer_u2\.temp_5b\[1\]
*293 deserializer_u2\.temp_5b\[2\]
*294 deserializer_u2\.temp_5b\[3\]
*295 deserializer_u2\.temp_5b\[4\]
*296 net1
*297 net10
*298 net100
*299 net101
*300 net102
*301 net103
*302 net104
*303 net105
*304 net106
*305 net107
*306 net108
*307 net109
*308 net11
*309 net110
*310 net111
*311 net112
*312 net113
*313 net114
*314 net115
*315 net116
*316 net117
*317 net118
*318 net119
*319 net12
*320 net13
*321 net14
*322 net15
*323 net16
*324 net17
*325 net18
*326 net19
*327 net2
*328 net20
*329 net21
*330 net22
*331 net23
*332 net24
*333 net25
*334 net26
*335 net27
*336 net28
*337 net29
*338 net3
*339 net30
*340 net31
*341 net32
*342 net33
*343 net34
*344 net35
*345 net36
*346 net37
*347 net38
*348 net39
*349 net4
*350 net40
*351 net41
*352 net42
*353 net43
*354 net44
*355 net45
*356 net46
*357 net47
*358 net48
*359 net49
*360 net5
*361 net50
*362 net51
*363 net52
*364 net53
*365 net54
*366 net55
*367 net56
*368 net57
*369 net58
*370 net59
*371 net6
*372 net60
*373 net61
*374 net62
*375 net63
*376 net64
*377 net65
*378 net66
*379 net67
*380 net68
*381 net69
*382 net7
*383 net70
*384 net71
*385 net72
*386 net73
*387 net74
*388 net75
*389 net76
*390 net77
*391 net78
*392 net79
*393 net8
*394 net80
*395 net81
*396 net82
*397 net83
*398 net84
*399 net85
*400 net86
*401 net87
*402 net88
*403 net89
*404 net9
*405 net90
*406 net91
*407 net92
*408 net93
*409 net94
*410 net95
*411 net96
*412 net97
*413 net98
*414 net99
*415 serializer_u2\.temp_4b\[0\]
*416 serializer_u2\.temp_4b\[1\]
*417 serializer_u2\.temp_4b\[2\]
*418 serializer_u2\.temp_4b\[3\]
*419 serializer_u2\.temp_6b\[0\]
*420 serializer_u2\.temp_6b\[1\]
*421 serializer_u2\.temp_6b\[2\]
*422 serializer_u2\.temp_6b\[3\]
*423 serializer_u2\.temp_6b\[4\]
*424 serializer_u2\.temp_6b\[5\]
*425 serializer_u3\.shift_reg\[0\]
*426 serializer_u3\.shift_reg\[1\]
*427 serializer_u3\.shift_reg\[2\]
*428 serializer_u3\.shift_reg\[3\]
*429 serializer_u3\.shift_reg\[4\]
*430 serializer_u3\.shift_reg\[5\]
*431 serializer_u3\.shift_reg\[6\]
*432 serializer_u3\.shift_reg\[7\]
*433 serializer_u3\.shift_reg\[8\]
*434 serializer_u3\.shift_reg\[9\]
*435 FILLER_0_109
*436 FILLER_0_113
*437 FILLER_0_125
*438 FILLER_0_137
*439 FILLER_0_141
*440 FILLER_0_15
*441 FILLER_0_151
*442 FILLER_0_163
*443 FILLER_0_167
*444 FILLER_0_169
*445 FILLER_0_181
*446 FILLER_0_27
*447 FILLER_0_29
*448 FILLER_0_3
*449 FILLER_0_41
*450 FILLER_0_53
*451 FILLER_0_57
*452 FILLER_0_69
*453 FILLER_0_81
*454 FILLER_0_85
*455 FILLER_0_97
*456 FILLER_10_101
*457 FILLER_10_111
*458 FILLER_10_137
*459 FILLER_10_165
*460 FILLER_10_22
*461 FILLER_10_29
*462 FILLER_10_3
*463 FILLER_10_37
*464 FILLER_10_41
*465 FILLER_10_82
*466 FILLER_11_113
*467 FILLER_11_21
*468 FILLER_11_29
*469 FILLER_11_47
*470 FILLER_11_55
*471 FILLER_11_61
*472 FILLER_11_79
*473 FILLER_11_87
*474 FILLER_12_112
*475 FILLER_12_131
*476 FILLER_12_141
*477 FILLER_12_17
*478 FILLER_12_176
*479 FILLER_12_25
*480 FILLER_12_33
*481 FILLER_12_40
*482 FILLER_12_57
*483 FILLER_12_65
*484 FILLER_12_85
*485 FILLER_12_93
*486 FILLER_13_107
*487 FILLER_13_111
*488 FILLER_13_146
*489 FILLER_13_167
*490 FILLER_13_169
*491 FILLER_13_179
*492 FILLER_13_28
*493 FILLER_13_3
*494 FILLER_13_47
*495 FILLER_13_55
*496 FILLER_13_80
*497 FILLER_14_141
*498 FILLER_14_161
*499 FILLER_14_165
*500 FILLER_14_18
*501 FILLER_14_23
*502 FILLER_14_27
*503 FILLER_14_29
*504 FILLER_14_35
*505 FILLER_14_40
*506 FILLER_14_48
*507 FILLER_14_54
*508 FILLER_14_6
*509 FILLER_14_66
*510 FILLER_14_97
*511 FILLER_15_10
*512 FILLER_15_101
*513 FILLER_15_122
*514 FILLER_15_140
*515 FILLER_15_144
*516 FILLER_15_159
*517 FILLER_15_177
*518 FILLER_15_3
*519 FILLER_15_31
*520 FILLER_15_41
*521 FILLER_15_60
*522 FILLER_15_68
*523 FILLER_16_113
*524 FILLER_16_136
*525 FILLER_16_141
*526 FILLER_16_151
*527 FILLER_16_47
*528 FILLER_16_54
*529 FILLER_16_78
*530 FILLER_17_136
*531 FILLER_17_15
*532 FILLER_17_156
*533 FILLER_17_169
*534 FILLER_17_181
*535 FILLER_17_22
*536 FILLER_17_3
*537 FILLER_17_34
*538 FILLER_17_40
*539 FILLER_17_57
*540 FILLER_17_76
*541 FILLER_18_10
*542 FILLER_18_105
*543 FILLER_18_109
*544 FILLER_18_123
*545 FILLER_18_129
*546 FILLER_18_137
*547 FILLER_18_141
*548 FILLER_18_147
*549 FILLER_18_156
*550 FILLER_18_22
*551 FILLER_18_29
*552 FILLER_18_3
*553 FILLER_18_71
*554 FILLER_18_75
*555 FILLER_18_85
*556 FILLER_18_96
*557 FILLER_19_102
*558 FILLER_19_113
*559 FILLER_19_162
*560 FILLER_19_169
*561 FILLER_19_180
*562 FILLER_19_3
*563 FILLER_19_42
*564 FILLER_19_57
*565 FILLER_19_61
*566 FILLER_1_120
*567 FILLER_1_127
*568 FILLER_1_15
*569 FILLER_1_177
*570 FILLER_1_181
*571 FILLER_1_27
*572 FILLER_1_3
*573 FILLER_1_39
*574 FILLER_1_51
*575 FILLER_1_55
*576 FILLER_1_73
*577 FILLER_20_133
*578 FILLER_20_139
*579 FILLER_20_141
*580 FILLER_20_163
*581 FILLER_20_23
*582 FILLER_20_27
*583 FILLER_20_29
*584 FILLER_20_55
*585 FILLER_20_6
*586 FILLER_20_74
*587 FILLER_20_83
*588 FILLER_21_157
*589 FILLER_21_165
*590 FILLER_21_169
*591 FILLER_21_173
*592 FILLER_21_37
*593 FILLER_21_6
*594 FILLER_21_81
*595 FILLER_21_90
*596 FILLER_21_99
*597 FILLER_22_10
*598 FILLER_22_101
*599 FILLER_22_122
*600 FILLER_22_134
*601 FILLER_22_161
*602 FILLER_22_173
*603 FILLER_22_177
*604 FILLER_22_18
*605 FILLER_22_29
*606 FILLER_22_3
*607 FILLER_22_33
*608 FILLER_23_111
*609 FILLER_23_122
*610 FILLER_23_139
*611 FILLER_23_159
*612 FILLER_23_167
*613 FILLER_23_169
*614 FILLER_23_181
*615 FILLER_23_52
*616 FILLER_23_65
*617 FILLER_24_101
*618 FILLER_24_136
*619 FILLER_24_164
*620 FILLER_24_17
*621 FILLER_24_176
*622 FILLER_24_29
*623 FILLER_24_3
*624 FILLER_24_72
*625 FILLER_24_76
*626 FILLER_25_111
*627 FILLER_25_113
*628 FILLER_25_123
*629 FILLER_25_146
*630 FILLER_25_158
*631 FILLER_25_166
*632 FILLER_25_169
*633 FILLER_25_181
*634 FILLER_25_20
*635 FILLER_25_28
*636 FILLER_25_39
*637 FILLER_25_97
*638 FILLER_26_112
*639 FILLER_26_145
*640 FILLER_26_157
*641 FILLER_26_169
*642 FILLER_26_181
*643 FILLER_26_20
*644 FILLER_26_40
*645 FILLER_26_47
*646 FILLER_26_6
*647 FILLER_26_80
*648 FILLER_26_93
*649 FILLER_27_124
*650 FILLER_27_138
*651 FILLER_27_147
*652 FILLER_27_159
*653 FILLER_27_167
*654 FILLER_27_169
*655 FILLER_27_18
*656 FILLER_27_181
*657 FILLER_27_26
*658 FILLER_27_42
*659 FILLER_27_6
*660 FILLER_27_64
*661 FILLER_27_81
*662 FILLER_27_91
*663 FILLER_27_95
*664 FILLER_28_109
*665 FILLER_28_122
*666 FILLER_28_139
*667 FILLER_28_141
*668 FILLER_28_15
*669 FILLER_28_153
*670 FILLER_28_165
*671 FILLER_28_177
*672 FILLER_28_181
*673 FILLER_28_19
*674 FILLER_28_29
*675 FILLER_28_3
*676 FILLER_28_33
*677 FILLER_29_101
*678 FILLER_29_109
*679 FILLER_29_113
*680 FILLER_29_148
*681 FILLER_29_15
*682 FILLER_29_160
*683 FILLER_29_169
*684 FILLER_29_181
*685 FILLER_29_19
*686 FILLER_29_3
*687 FILLER_29_36
*688 FILLER_29_65
*689 FILLER_29_69
*690 FILLER_2_111
*691 FILLER_2_119
*692 FILLER_2_128
*693 FILLER_2_134
*694 FILLER_2_15
*695 FILLER_2_157
*696 FILLER_2_27
*697 FILLER_2_29
*698 FILLER_2_3
*699 FILLER_2_41
*700 FILLER_2_49
*701 FILLER_2_81
*702 FILLER_2_94
*703 FILLER_30_109
*704 FILLER_30_113
*705 FILLER_30_125
*706 FILLER_30_131
*707 FILLER_30_141
*708 FILLER_30_15
*709 FILLER_30_153
*710 FILLER_30_165
*711 FILLER_30_169
*712 FILLER_30_181
*713 FILLER_30_27
*714 FILLER_30_29
*715 FILLER_30_3
*716 FILLER_30_39
*717 FILLER_30_51
*718 FILLER_30_55
*719 FILLER_30_57
*720 FILLER_30_69
*721 FILLER_30_81
*722 FILLER_30_85
*723 FILLER_30_97
*724 FILLER_3_123
*725 FILLER_3_15
*726 FILLER_3_167
*727 FILLER_3_169
*728 FILLER_3_181
*729 FILLER_3_27
*730 FILLER_3_3
*731 FILLER_3_39
*732 FILLER_3_51
*733 FILLER_3_55
*734 FILLER_3_94
*735 FILLER_4_102
*736 FILLER_4_110
*737 FILLER_4_122
*738 FILLER_4_135
*739 FILLER_4_139
*740 FILLER_4_141
*741 FILLER_4_146
*742 FILLER_4_15
*743 FILLER_4_27
*744 FILLER_4_29
*745 FILLER_4_3
*746 FILLER_4_41
*747 FILLER_4_53
*748 FILLER_4_57
*749 FILLER_4_83
*750 FILLER_5_106
*751 FILLER_5_116
*752 FILLER_5_122
*753 FILLER_5_137
*754 FILLER_5_145
*755 FILLER_5_15
*756 FILLER_5_150
*757 FILLER_5_169
*758 FILLER_5_181
*759 FILLER_5_27
*760 FILLER_5_3
*761 FILLER_5_39
*762 FILLER_5_51
*763 FILLER_5_55
*764 FILLER_5_57
*765 FILLER_6_136
*766 FILLER_6_22
*767 FILLER_6_29
*768 FILLER_6_41
*769 FILLER_6_53
*770 FILLER_6_65
*771 FILLER_6_7
*772 FILLER_7_110
*773 FILLER_7_113
*774 FILLER_7_121
*775 FILLER_7_131
*776 FILLER_7_138
*777 FILLER_7_150
*778 FILLER_7_169
*779 FILLER_7_181
*780 FILLER_7_24
*781 FILLER_7_36
*782 FILLER_7_48
*783 FILLER_7_73
*784 FILLER_7_90
*785 FILLER_8_111
*786 FILLER_8_138
*787 FILLER_8_141
*788 FILLER_8_29
*789 FILLER_8_3
*790 FILLER_8_39
*791 FILLER_8_51
*792 FILLER_8_83
*793 FILLER_8_85
*794 FILLER_9_113
*795 FILLER_9_12
*796 FILLER_9_131
*797 FILLER_9_137
*798 FILLER_9_165
*799 FILLER_9_169
*800 FILLER_9_181
*801 FILLER_9_24
*802 FILLER_9_30
*803 FILLER_9_42
*804 FILLER_9_77
*805 PHY_EDGE_ROW_0_Left_31
*806 PHY_EDGE_ROW_0_Right_0
*807 PHY_EDGE_ROW_10_Left_41
*808 PHY_EDGE_ROW_10_Right_10
*809 PHY_EDGE_ROW_11_Left_42
*810 PHY_EDGE_ROW_11_Right_11
*811 PHY_EDGE_ROW_12_Left_43
*812 PHY_EDGE_ROW_12_Right_12
*813 PHY_EDGE_ROW_13_Left_44
*814 PHY_EDGE_ROW_13_Right_13
*815 PHY_EDGE_ROW_14_Left_45
*816 PHY_EDGE_ROW_14_Right_14
*817 PHY_EDGE_ROW_15_Left_46
*818 PHY_EDGE_ROW_15_Right_15
*819 PHY_EDGE_ROW_16_Left_47
*820 PHY_EDGE_ROW_16_Right_16
*821 PHY_EDGE_ROW_17_Left_48
*822 PHY_EDGE_ROW_17_Right_17
*823 PHY_EDGE_ROW_18_Left_49
*824 PHY_EDGE_ROW_18_Right_18
*825 PHY_EDGE_ROW_19_Left_50
*826 PHY_EDGE_ROW_19_Right_19
*827 PHY_EDGE_ROW_1_Left_32
*828 PHY_EDGE_ROW_1_Right_1
*829 PHY_EDGE_ROW_20_Left_51
*830 PHY_EDGE_ROW_20_Right_20
*831 PHY_EDGE_ROW_21_Left_52
*832 PHY_EDGE_ROW_21_Right_21
*833 PHY_EDGE_ROW_22_Left_53
*834 PHY_EDGE_ROW_22_Right_22
*835 PHY_EDGE_ROW_23_Left_54
*836 PHY_EDGE_ROW_23_Right_23
*837 PHY_EDGE_ROW_24_Left_55
*838 PHY_EDGE_ROW_24_Right_24
*839 PHY_EDGE_ROW_25_Left_56
*840 PHY_EDGE_ROW_25_Right_25
*841 PHY_EDGE_ROW_26_Left_57
*842 PHY_EDGE_ROW_26_Right_26
*843 PHY_EDGE_ROW_27_Left_58
*844 PHY_EDGE_ROW_27_Right_27
*845 PHY_EDGE_ROW_28_Left_59
*846 PHY_EDGE_ROW_28_Right_28
*847 PHY_EDGE_ROW_29_Left_60
*848 PHY_EDGE_ROW_29_Right_29
*849 PHY_EDGE_ROW_2_Left_33
*850 PHY_EDGE_ROW_2_Right_2
*851 PHY_EDGE_ROW_30_Left_61
*852 PHY_EDGE_ROW_30_Right_30
*853 PHY_EDGE_ROW_3_Left_34
*854 PHY_EDGE_ROW_3_Right_3
*855 PHY_EDGE_ROW_4_Left_35
*856 PHY_EDGE_ROW_4_Right_4
*857 PHY_EDGE_ROW_5_Left_36
*858 PHY_EDGE_ROW_5_Right_5
*859 PHY_EDGE_ROW_6_Left_37
*860 PHY_EDGE_ROW_6_Right_6
*861 PHY_EDGE_ROW_7_Left_38
*862 PHY_EDGE_ROW_7_Right_7
*863 PHY_EDGE_ROW_8_Left_39
*864 PHY_EDGE_ROW_8_Right_8
*865 PHY_EDGE_ROW_9_Left_40
*866 PHY_EDGE_ROW_9_Right_9
*867 TAP_TAPCELL_ROW_0_62
*868 TAP_TAPCELL_ROW_0_63
*869 TAP_TAPCELL_ROW_0_64
*870 TAP_TAPCELL_ROW_0_65
*871 TAP_TAPCELL_ROW_0_66
*872 TAP_TAPCELL_ROW_0_67
*873 TAP_TAPCELL_ROW_10_95
*874 TAP_TAPCELL_ROW_10_96
*875 TAP_TAPCELL_ROW_10_97
*876 TAP_TAPCELL_ROW_11_100
*877 TAP_TAPCELL_ROW_11_98
*878 TAP_TAPCELL_ROW_11_99
*879 TAP_TAPCELL_ROW_12_101
*880 TAP_TAPCELL_ROW_12_102
*881 TAP_TAPCELL_ROW_12_103
*882 TAP_TAPCELL_ROW_13_104
*883 TAP_TAPCELL_ROW_13_105
*884 TAP_TAPCELL_ROW_13_106
*885 TAP_TAPCELL_ROW_14_107
*886 TAP_TAPCELL_ROW_14_108
*887 TAP_TAPCELL_ROW_14_109
*888 TAP_TAPCELL_ROW_15_110
*889 TAP_TAPCELL_ROW_15_111
*890 TAP_TAPCELL_ROW_15_112
*891 TAP_TAPCELL_ROW_16_113
*892 TAP_TAPCELL_ROW_16_114
*893 TAP_TAPCELL_ROW_16_115
*894 TAP_TAPCELL_ROW_17_116
*895 TAP_TAPCELL_ROW_17_117
*896 TAP_TAPCELL_ROW_17_118
*897 TAP_TAPCELL_ROW_18_119
*898 TAP_TAPCELL_ROW_18_120
*899 TAP_TAPCELL_ROW_18_121
*900 TAP_TAPCELL_ROW_19_122
*901 TAP_TAPCELL_ROW_19_123
*902 TAP_TAPCELL_ROW_19_124
*903 TAP_TAPCELL_ROW_1_68
*904 TAP_TAPCELL_ROW_1_69
*905 TAP_TAPCELL_ROW_1_70
*906 TAP_TAPCELL_ROW_20_125
*907 TAP_TAPCELL_ROW_20_126
*908 TAP_TAPCELL_ROW_20_127
*909 TAP_TAPCELL_ROW_21_128
*910 TAP_TAPCELL_ROW_21_129
*911 TAP_TAPCELL_ROW_21_130
*912 TAP_TAPCELL_ROW_22_131
*913 TAP_TAPCELL_ROW_22_132
*914 TAP_TAPCELL_ROW_22_133
*915 TAP_TAPCELL_ROW_23_134
*916 TAP_TAPCELL_ROW_23_135
*917 TAP_TAPCELL_ROW_23_136
*918 TAP_TAPCELL_ROW_24_137
*919 TAP_TAPCELL_ROW_24_138
*920 TAP_TAPCELL_ROW_24_139
*921 TAP_TAPCELL_ROW_25_140
*922 TAP_TAPCELL_ROW_25_141
*923 TAP_TAPCELL_ROW_25_142
*924 TAP_TAPCELL_ROW_26_143
*925 TAP_TAPCELL_ROW_26_144
*926 TAP_TAPCELL_ROW_26_145
*927 TAP_TAPCELL_ROW_27_146
*928 TAP_TAPCELL_ROW_27_147
*929 TAP_TAPCELL_ROW_27_148
*930 TAP_TAPCELL_ROW_28_149
*931 TAP_TAPCELL_ROW_28_150
*932 TAP_TAPCELL_ROW_28_151
*933 TAP_TAPCELL_ROW_29_152
*934 TAP_TAPCELL_ROW_29_153
*935 TAP_TAPCELL_ROW_29_154
*936 TAP_TAPCELL_ROW_2_71
*937 TAP_TAPCELL_ROW_2_72
*938 TAP_TAPCELL_ROW_2_73
*939 TAP_TAPCELL_ROW_30_155
*940 TAP_TAPCELL_ROW_30_156
*941 TAP_TAPCELL_ROW_30_157
*942 TAP_TAPCELL_ROW_30_158
*943 TAP_TAPCELL_ROW_30_159
*944 TAP_TAPCELL_ROW_30_160
*945 TAP_TAPCELL_ROW_3_74
*946 TAP_TAPCELL_ROW_3_75
*947 TAP_TAPCELL_ROW_3_76
*948 TAP_TAPCELL_ROW_4_77
*949 TAP_TAPCELL_ROW_4_78
*950 TAP_TAPCELL_ROW_4_79
*951 TAP_TAPCELL_ROW_5_80
*952 TAP_TAPCELL_ROW_5_81
*953 TAP_TAPCELL_ROW_5_82
*954 TAP_TAPCELL_ROW_6_83
*955 TAP_TAPCELL_ROW_6_84
*956 TAP_TAPCELL_ROW_6_85
*957 TAP_TAPCELL_ROW_7_86
*958 TAP_TAPCELL_ROW_7_87
*959 TAP_TAPCELL_ROW_7_88
*960 TAP_TAPCELL_ROW_8_89
*961 TAP_TAPCELL_ROW_8_90
*962 TAP_TAPCELL_ROW_8_91
*963 TAP_TAPCELL_ROW_9_92
*964 TAP_TAPCELL_ROW_9_93
*965 TAP_TAPCELL_ROW_9_94
*966 _208_
*967 _209_
*968 _210_
*969 _211_
*970 _212_
*971 _213_
*972 _214_
*973 _215_
*974 _216_
*975 _217_
*976 _218_
*977 _219_
*978 _220_
*979 _221_
*980 _222_
*981 _223_
*982 _224_
*983 _225_
*984 _226_
*985 _227_
*986 _228_
*987 _229_
*988 _230_
*989 _231_
*990 _232_
*991 _233_
*992 _234_
*993 _235_
*994 _236_
*995 _237_
*996 _238_
*997 _239_
*998 _240_
*999 _241_
*1000 _242_
*1001 _243_
*1002 _244_
*1003 _245_
*1004 _246_
*1005 _247_
*1006 _248_
*1007 _249_
*1008 _250_
*1009 _251_
*1010 _252_
*1011 _253_
*1012 _254_
*1013 _255_
*1014 _256_
*1015 _257_
*1016 _258_
*1017 _259_
*1018 _260_
*1019 _261_
*1020 _262_
*1021 _263_
*1022 _264_
*1023 _265_
*1024 _266_
*1025 _267_
*1026 _268_
*1027 _269_
*1028 _270_
*1029 _271_
*1030 _272_
*1031 _273_
*1032 _274_
*1033 _275_
*1034 _276_
*1035 _277_
*1036 _278_
*1037 _279_
*1038 _280_
*1039 _281_
*1040 _282_
*1041 _283_
*1042 _284_
*1043 _285_
*1044 _286_
*1045 _287_
*1046 _288_
*1047 _289_
*1048 _290_
*1049 _291_
*1050 _292_
*1051 _293_
*1052 _294_
*1053 _295_
*1054 _296_
*1055 _297_
*1056 _298_
*1057 _299_
*1058 _300_
*1059 _301_
*1060 _302_
*1061 _303_
*1062 _304_
*1063 _305_
*1064 _306_
*1065 _307_
*1066 _308_
*1067 _309_
*1068 _310_
*1069 _311_
*1070 _312_
*1071 _313_
*1072 _314_
*1073 _315_
*1074 _316_
*1075 _317_
*1076 _318_
*1077 _319_
*1078 _320_
*1079 _321_
*1080 _322_
*1081 _323_
*1082 _324_
*1083 _325_
*1084 _326_
*1085 _327_
*1086 _328_
*1087 _329_
*1088 _330_
*1089 _331_
*1090 _332_
*1091 _333_
*1092 _334_
*1093 _335_
*1094 _336_
*1095 _337_
*1096 _338_
*1097 _339_
*1098 _340_
*1099 _341_
*1100 _342_
*1101 _343_
*1102 _344_
*1103 _345_
*1104 _346_
*1105 _347_
*1106 _348_
*1107 _349_
*1108 _350_
*1109 _351_
*1110 _352_
*1111 _353_
*1112 _354_
*1113 _355_
*1114 _356_
*1115 _357_
*1116 _358_
*1117 _359_
*1118 _360_
*1119 _361_
*1120 _362_
*1121 _363_
*1122 _364_
*1123 _365_
*1124 _366_
*1125 _367_
*1126 _368_
*1127 _369_
*1128 _370_
*1129 _371_
*1130 _372_
*1131 _373_
*1132 _374_
*1133 _375_
*1134 _376_
*1135 _377_
*1136 _378_
*1137 _379_
*1138 _380_
*1139 _381_
*1140 _382_
*1141 _383_
*1142 _384_
*1143 _385_
*1144 _386_
*1145 _387_
*1146 _388_
*1147 _389_
*1148 _390_
*1149 _391_
*1150 _392_
*1151 _393_
*1152 _394_
*1153 _395_
*1154 _396_
*1155 _397_
*1156 _398_
*1157 _399_
*1158 _400_
*1159 _401_
*1160 _402_
*1161 _403_
*1162 _404_
*1163 _405_
*1164 _406_
*1165 _407_
*1166 _408_
*1167 _409_
*1168 _410_
*1169 _411_
*1170 _412_
*1171 _413_
*1172 _414_
*1173 _415_
*1174 _416_
*1175 _417_
*1176 _418_
*1177 _419_
*1178 _420_
*1179 _421_
*1180 _422_
*1181 _423_
*1182 _424_
*1183 _425_
*1184 _426_
*1185 _427_
*1186 _428_
*1187 _429_
*1188 _430_
*1189 _431_
*1190 _432_
*1191 _433_
*1192 _434_
*1193 _435_
*1194 _436_
*1195 _437_
*1196 _438_
*1197 _439_
*1198 _440_
*1199 _441_
*1200 _442_
*1201 _443_
*1202 _444_
*1203 _445_
*1204 _446_
*1205 _447_
*1206 _448_
*1207 _449_
*1208 _450_
*1209 _451_
*1210 _452_
*1211 _453_
*1212 _454_
*1213 _455_
*1214 _456_
*1215 _457_
*1216 _458_
*1217 _459_
*1218 _460_
*1219 _461_
*1220 _462_
*1221 _463_
*1222 _464_
*1223 _465_
*1224 _466_
*1225 _467_
*1226 _468_
*1227 _469_
*1228 _470_
*1229 _471_
*1230 _472_
*1231 _473_
*1232 _474_
*1233 _475_
*1234 _476_
*1235 _477_
*1236 _478_
*1237 _479_
*1238 _480_
*1239 _481_
*1240 _482_
*1241 _483_
*1242 _484_
*1243 _485_
*1244 _486_
*1245 _487_
*1246 _488_
*1247 _489_
*1248 _490_
*1249 _491_
*1250 _492_
*1251 _493_
*1252 _494_
*1253 _495_
*1254 _496_
*1255 _497_
*1256 _498_
*1257 _499_
*1258 _500_
*1259 clkbuf_0_clk
*1260 clkbuf_3_0__f_clk
*1261 clkbuf_3_1__f_clk
*1262 clkbuf_3_2__f_clk
*1263 clkbuf_3_3__f_clk
*1264 clkbuf_3_4__f_clk
*1265 clkbuf_3_5__f_clk
*1266 clkbuf_3_6__f_clk
*1267 clkbuf_3_7__f_clk
*1268 clkload0
*1269 clkload1
*1270 clkload2
*1271 clkload3
*1272 clkload4
*1273 clkload5
*1274 clkload6
*1275 fanout20
*1276 fanout21
*1277 fanout22
*1278 fanout23
*1279 fanout24
*1280 fanout25
*1281 fanout26
*1282 fanout27
*1283 fanout28
*1284 fanout29
*1285 fanout30
*1286 fanout31
*1287 hold1
*1288 hold10
*1289 hold11
*1290 hold12
*1291 hold13
*1292 hold14
*1293 hold15
*1294 hold16
*1295 hold17
*1296 hold18
*1297 hold19
*1298 hold2
*1299 hold20
*1300 hold21
*1301 hold22
*1302 hold23
*1303 hold24
*1304 hold25
*1305 hold26
*1306 hold27
*1307 hold28
*1308 hold29
*1309 hold3
*1310 hold30
*1311 hold31
*1312 hold32
*1313 hold33
*1314 hold34
*1315 hold35
*1316 hold36
*1317 hold37
*1318 hold38
*1319 hold39
*1320 hold4
*1321 hold40
*1322 hold41
*1323 hold42
*1324 hold43
*1325 hold44
*1326 hold45
*1327 hold46
*1328 hold47
*1329 hold48
*1330 hold49
*1331 hold5
*1332 hold50
*1333 hold51
*1334 hold52
*1335 hold53
*1336 hold54
*1337 hold55
*1338 hold56
*1339 hold57
*1340 hold58
*1341 hold59
*1342 hold6
*1343 hold60
*1344 hold61
*1345 hold62
*1346 hold63
*1347 hold64
*1348 hold65
*1349 hold66
*1350 hold67
*1351 hold68
*1352 hold69
*1353 hold7
*1354 hold70
*1355 hold71
*1356 hold72
*1357 hold73
*1358 hold74
*1359 hold75
*1360 hold76
*1361 hold77
*1362 hold78
*1363 hold79
*1364 hold8
*1365 hold80
*1366 hold81
*1367 hold82
*1368 hold83
*1369 hold84
*1370 hold85
*1371 hold86
*1372 hold87
*1373 hold88
*1374 hold9
*1375 input1
*1376 input10
*1377 input2
*1378 input3
*1379 input4
*1380 input5
*1381 input6
*1382 input7
*1383 input8
*1384 input9
*1385 output11
*1386 output12
*1387 output13
*1388 output14
*1389 output15
*1390 output16
*1391 output17
*1392 output18
*1393 output19

*PORTS
bus_free_flag O
clk I
data_8bit_in[0] I
data_8bit_in[1] I
data_8bit_in[2] I
data_8bit_in[3] I
data_8bit_in[4] I
data_8bit_in[5] I
data_8bit_in[6] I
data_8bit_in[7] I
data_8bit_out[0] O
data_8bit_out[1] O
data_8bit_out[2] O
data_8bit_out[3] O
data_8bit_out[4] O
data_8bit_out[5] O
data_8bit_out[6] O
data_8bit_out[7] O
data_en I
rst_n I

*D_NET *3 0.000794028
*CONN
*P bus_free_flag O
*I *1385:X O *D sky130_fd_sc_hd__buf_2
*CAP
1 bus_free_flag 0.000367029
2 *1385:X 0.000367029
3 bus_free_flag *993:B 0
4 bus_free_flag *21:11 5.99691e-05
5 bus_free_flag *308:10 0
*RES
1 *1385:X bus_free_flag 49.8901 
*END

*D_NET *4 0.01075
*CONN
*P clk I
*I *1259:A I *D sky130_fd_sc_hd__clkbuf_16
*CAP
1 clk 0.00263323
2 *1259:A 0
3 *4:9 0.00170981
4 *4:7 0.00434304
5 *4:7 data_8bit_out[2] 0.000187346
6 *4:9 *1018:A1 0.000138185
7 *4:9 *1062:B1 0
8 *4:9 *1164:A1 0
9 *4:9 *1255:CLK 8.83341e-05
10 *4:9 *1277:A 9.42969e-05
11 *4:9 *1362:A 0.000177914
12 *4:9 *46:10 0
13 *4:9 *47:8 8.51329e-05
14 *4:9 *138:16 5.30406e-05
15 *4:9 *138:27 0.00015165
16 *4:9 *141:33 0.000174079
17 *4:9 *145:8 0.000104133
18 *4:9 *171:8 0.000243587
19 *4:9 *227:10 0.000176893
20 *4:9 *236:44 6.11183e-05
21 *4:9 *236:55 0.000142724
22 *4:9 *236:70 0
23 *4:9 *268:50 2.19236e-05
24 *4:9 *269:21 0
25 *4:9 *271:16 3.31683e-05
26 *4:9 *298:10 0
27 *4:9 *300:10 0
28 *4:9 *307:8 0
29 *4:9 *330:10 0.000130451
30 *4:9 *335:40 0
31 *4:9 *337:30 0
*RES
1 clk *4:7 14.5968 
2 *4:7 *4:9 39.4089 
3 *4:9 *1259:A 38 
*END

*D_NET *5 0.00111531
*CONN
*P data_8bit_in[0] I
*I *1375:A I *D sky130_fd_sc_hd__clkbuf_1
*CAP
1 data_8bit_in[0] 0.000392526
2 *1375:A 0
3 *5:17 0.000392526
4 *5:17 *6:17 2.12457e-05
5 *5:17 *7:15 0.000309015
6 *5:17 *296:8 0
7 *5:17 *336:16 0
*RES
1 data_8bit_in[0] *5:17 30.3277 
2 *5:17 *1375:A 23 
*END

*D_NET *6 0.000683649
*CONN
*P data_8bit_in[1] I
*I *1377:A I *D sky130_fd_sc_hd__clkbuf_1
*CAP
1 data_8bit_in[1] 0.000331202
2 *1377:A 0
3 *6:17 0.000331202
4 *6:17 *8:17 0
5 *5:17 *6:17 2.12457e-05
*RES
1 data_8bit_in[1] *6:17 27.1584 
2 *6:17 *1377:A 23 
*END

*D_NET *7 0.00108498
*CONN
*P data_8bit_in[2] I
*I *1378:A I *D sky130_fd_sc_hd__clkbuf_1
*CAP
1 data_8bit_in[2] 0.00037051
2 *1378:A 0
3 *7:15 0.00037051
4 *7:15 *21:11 3.49463e-05
5 *7:15 *37:10 0
6 *5:17 *7:15 0.000309015
*RES
1 data_8bit_in[2] *7:15 29.4082 
2 *7:15 *1378:A 23 
*END

*D_NET *8 0.000679328
*CONN
*P data_8bit_in[3] I
*I *1379:A I *D sky130_fd_sc_hd__clkbuf_1
*CAP
1 data_8bit_in[3] 0.000339664
2 *1379:A 0
3 *8:17 0.000339664
4 *8:17 *37:40 0
5 *6:17 *8:17 0
*RES
1 data_8bit_in[3] *8:17 27.1584 
2 *8:17 *1379:A 23 
*END

*D_NET *9 0.000687053
*CONN
*P data_8bit_in[4] I
*I *1380:A I *D sky130_fd_sc_hd__clkbuf_1
*CAP
1 data_8bit_in[4] 0.000343527
2 *1380:A 0
3 *9:17 0.000343527
4 *9:17 *22:17 0
5 *9:17 *37:64 0
*RES
1 data_8bit_in[4] *9:17 27.5105 
2 *9:17 *1380:A 23 
*END

*D_NET *10 0.00150249
*CONN
*P data_8bit_in[5] I
*I *1381:A I *D sky130_fd_sc_hd__clkbuf_1
*CAP
1 data_8bit_in[5] 0.000699169
2 *1381:A 0
3 *10:11 0.000699169
4 *10:11 *11:17 2.12457e-05
5 *10:11 *12:11 0
6 *10:11 *22:17 2.12457e-05
7 *10:11 *37:68 0
8 *10:11 *76:8 0
9 *10:11 *264:10 0
10 *10:11 *264:23 0
11 *10:11 *297:10 0
12 *10:11 *329:98 0
13 *10:11 *371:8 6.16635e-05
14 *10:11 *382:10 0
*RES
1 data_8bit_in[5] *10:11 27.3081 
2 *10:11 *1381:A 23 
*END

*D_NET *11 0.000952444
*CONN
*P data_8bit_in[6] I
*I *1382:A I *D sky130_fd_sc_hd__clkbuf_1
*CAP
1 data_8bit_in[6] 0.000449975
2 *1382:A 0
3 *11:17 0.000449975
4 *11:17 *992:A 0
5 *11:17 *1226:GATE_N 0
6 *11:17 *12:11 3.12475e-05
7 *11:17 *37:68 0
8 *11:17 *393:8 0
9 *10:11 *11:17 2.12457e-05
*RES
1 data_8bit_in[6] *11:17 30.3277 
2 *11:17 *1382:A 23 
*END

*D_NET *12 0.000972043
*CONN
*P data_8bit_in[7] I
*I *1383:A I *D sky130_fd_sc_hd__clkbuf_1
*CAP
1 data_8bit_in[7] 0.000412152
2 *1383:A 0
3 *12:11 0.000412152
4 *12:11 *393:8 0.000116491
5 *10:11 *12:11 0
6 *11:17 *12:11 3.12475e-05
*RES
1 data_8bit_in[7] *12:11 27.9525 
2 *12:11 *1383:A 23 
*END

*D_NET *13 0.00256503
*CONN
*P data_8bit_out[0] O
*I *1386:X O *D sky130_fd_sc_hd__buf_2
*CAP
1 data_8bit_out[0] 0.000820594
2 *1386:X 0.000218541
3 *13:8 0.00103914
4 data_8bit_out[0] data_8bit_out[1] 6.93279e-05
5 data_8bit_out[0] data_8bit_out[4] 8.06147e-05
6 *13:8 *1130:A0 0.000116155
7 *13:8 *128:16 0
8 *13:8 *291:10 0.000169674
9 *13:8 *292:12 0
10 *13:8 *292:27 0
11 *13:8 *378:10 0
12 *13:8 *379:8 5.09885e-05
*RES
1 *1386:X *13:8 43.2511 
2 *13:8 data_8bit_out[0] 10.2176 
*END

*D_NET *14 0.000511806
*CONN
*P data_8bit_out[1] O
*I *1387:X O *D sky130_fd_sc_hd__buf_2
*CAP
1 data_8bit_out[1] 0.000211814
2 *1387:X 0.000211814
3 data_8bit_out[1] data_8bit_out[5] 0
4 data_8bit_out[1] *320:35 1.88491e-05
5 data_8bit_out[0] data_8bit_out[1] 6.93279e-05
*RES
1 *1387:X data_8bit_out[1] 47.4311 
*END

*D_NET *15 0.00153311
*CONN
*P data_8bit_out[2] O
*I *1388:X O *D sky130_fd_sc_hd__buf_2
*CAP
1 data_8bit_out[2] 0.0004787
2 *1388:X 0.000123204
3 *15:12 0.000601904
4 *15:12 *1055:B2 0.000141954
5 *15:12 *1070:B1 0
6 *15:12 *1388:A 0
7 *15:12 *377:25 0
8 *4:7 data_8bit_out[2] 0.000187346
*RES
1 *1388:X *15:12 48.5996 
2 *15:12 data_8bit_out[2] 1.78827 
*END

*D_NET *16 0.00191229
*CONN
*P data_8bit_out[3] O
*I *1389:X O *D sky130_fd_sc_hd__buf_2
*CAP
1 data_8bit_out[3] 0.000915024
2 *1389:X 0.000915024
3 data_8bit_out[3] data_8bit_out[4] 0
4 data_8bit_out[3] *121:29 4.32584e-05
5 data_8bit_out[3] *237:12 3.89868e-05
*RES
1 *1389:X data_8bit_out[3] 49.9472 
*END

*D_NET *17 0.000953129
*CONN
*P data_8bit_out[4] O
*I *1390:X O *D sky130_fd_sc_hd__buf_2
*CAP
1 data_8bit_out[4] 0.000165082
2 *1390:X 0.000195111
3 *17:8 0.000360192
4 *17:8 *323:25 0.00015213
5 data_8bit_out[0] data_8bit_out[4] 8.06147e-05
6 data_8bit_out[3] data_8bit_out[4] 0
*RES
1 *1390:X *17:8 42.1946 
2 *17:8 data_8bit_out[4] 8.75787 
*END

*D_NET *18 0.000609807
*CONN
*P data_8bit_out[5] O
*I *1391:X O *D sky130_fd_sc_hd__buf_2
*CAP
1 data_8bit_out[5] 0.000250915
2 *1391:X 0.000250915
3 data_8bit_out[5] *122:121 3.59619e-05
4 data_8bit_out[5] *324:8 7.20154e-05
5 data_8bit_out[1] data_8bit_out[5] 0
*RES
1 *1391:X data_8bit_out[5] 47.7832 
*END

*D_NET *19 0.00130267
*CONN
*P data_8bit_out[6] O
*I *1392:X O *D sky130_fd_sc_hd__buf_2
*CAP
1 data_8bit_out[6] 0.000171008
2 *1392:X 0.000289169
3 *19:8 0.000460177
4 data_8bit_out[6] data_8bit_out[7] 7.77421e-05
5 *19:8 *1392:A 0.00016046
6 *19:8 *325:8 0.00014411
7 *19:8 *380:8 0
*RES
1 *1392:X *19:8 44.6596 
2 *19:8 data_8bit_out[6] 8.75787 
*END

*D_NET *20 0.00189606
*CONN
*P data_8bit_out[7] O