* NGSPICE file created from serdes_8bit.ext - technology: sky130A

* Black-box entry subcircuit for sky130_fd_sc_hd__tapvpwrvgnd_1 abstract view
.subckt sky130_fd_sc_hd__tapvpwrvgnd_1 VGND VPWR
.ends

* Black-box entry subcircuit for sky130_fd_sc_hd__fill_1 abstract view
.subckt sky130_fd_sc_hd__fill_1 VGND VNB VPB VPWR
.ends

* Black-box entry subcircuit for sky130_fd_sc_hd__decap_3 abstract view
.subckt sky130_fd_sc_hd__decap_3 VGND VNB VPB VPWR
.ends

* Black-box entry subcircuit for sky130_fd_sc_hd__o21ai_1 abstract view
.subckt sky130_fd_sc_hd__o21ai_1 A1 A2 B1 VGND VNB VPB VPWR Y
.ends

* Black-box entry subcircuit for sky130_fd_sc_hd__dfxtp_1 abstract view
.subckt sky130_fd_sc_hd__dfxtp_1 CLK D VGND VNB VPB VPWR Q
.ends

* Black-box entry subcircuit for sky130_fd_sc_hd__or3_1 abstract view
.subckt sky130_fd_sc_hd__or3_1 A B C VGND VNB VPB VPWR X
.ends

* Black-box entry subcircuit for sky130_fd_sc_hd__and2_1 abstract view
.subckt sky130_fd_sc_hd__and2_1 A B VGND VNB VPB VPWR X
.ends

* Black-box entry subcircuit for sky130_fd_sc_hd__a22o_1 abstract view
.subckt sky130_fd_sc_hd__a22o_1 A1 A2 B1 B2 VGND VNB VPB VPWR X
.ends

* Black-box entry subcircuit for sky130_fd_sc_hd__fill_2 abstract view
.subckt sky130_fd_sc_hd__fill_2 VGND VNB VPB VPWR
.ends

* Black-box entry subcircuit for sky130_fd_sc_hd__a21boi_1 abstract view
.subckt sky130_fd_sc_hd__a21boi_1 A1 A2 B1_N VGND VNB VPB VPWR Y
.ends

* Black-box entry subcircuit for sky130_fd_sc_hd__a21oi_1 abstract view
.subckt sky130_fd_sc_hd__a21oi_1 A1 A2 B1 VGND VNB VPB VPWR Y
.ends

* Black-box entry subcircuit for sky130_ef_sc_hd__decap_12 abstract view
.subckt sky130_ef_sc_hd__decap_12 VPWR VGND VPB VNB
.ends

* Black-box entry subcircuit for sky130_fd_sc_hd__dlygate4sd3_1 abstract view
.subckt sky130_fd_sc_hd__dlygate4sd3_1 A VGND VNB VPB VPWR X
.ends

* Black-box entry subcircuit for sky130_fd_sc_hd__decap_8 abstract view
.subckt sky130_fd_sc_hd__decap_8 VGND VNB VPB VPWR
.ends

* Black-box entry subcircuit for sky130_fd_sc_hd__clkbuf_16 abstract view
.subckt sky130_fd_sc_hd__clkbuf_16 A VGND VNB VPB VPWR X
.ends

* Black-box entry subcircuit for sky130_fd_sc_hd__mux2_1 abstract view
.subckt sky130_fd_sc_hd__mux2_1 A0 A1 S VGND VNB VPB VPWR X
.ends

* Black-box entry subcircuit for sky130_fd_sc_hd__and3b_1 abstract view
.subckt sky130_fd_sc_hd__and3b_1 A_N B C VGND VNB VPB VPWR X
.ends

* Black-box entry subcircuit for sky130_fd_sc_hd__and3_1 abstract view
.subckt sky130_fd_sc_hd__and3_1 A B C VGND VNB VPB VPWR X
.ends

* Black-box entry subcircuit for sky130_fd_sc_hd__decap_4 abstract view
.subckt sky130_fd_sc_hd__decap_4 VGND VNB VPB VPWR
.ends

* Black-box entry subcircuit for sky130_fd_sc_hd__nand2_1 abstract view
.subckt sky130_fd_sc_hd__nand2_1 A B VGND VNB VPB VPWR Y
.ends

* Black-box entry subcircuit for sky130_fd_sc_hd__a221o_1 abstract view
.subckt sky130_fd_sc_hd__a221o_1 A1 A2 B1 B2 C1 VGND VNB VPB VPWR X
.ends

* Black-box entry subcircuit for sky130_fd_sc_hd__nor2_1 abstract view
.subckt sky130_fd_sc_hd__nor2_1 A B VGND VNB VPB VPWR Y
.ends

* Black-box entry subcircuit for sky130_fd_sc_hd__decap_6 abstract view
.subckt sky130_fd_sc_hd__decap_6 VGND VNB VPB VPWR
.ends

* Black-box entry subcircuit for sky130_fd_sc_hd__o21ai_2 abstract view
.subckt sky130_fd_sc_hd__o21ai_2 A1 A2 B1 VGND VNB VPB VPWR Y
.ends

* Black-box entry subcircuit for sky130_fd_sc_hd__buf_2 abstract view
.subckt sky130_fd_sc_hd__buf_2 A VGND VNB VPB VPWR X
.ends

* Black-box entry subcircuit for sky130_fd_sc_hd__a211oi_1 abstract view
.subckt sky130_fd_sc_hd__a211oi_1 A1 A2 B1 C1 VGND VNB VPB VPWR Y
.ends

* Black-box entry subcircuit for sky130_fd_sc_hd__a311o_1 abstract view
.subckt sky130_fd_sc_hd__a311o_1 A1 A2 A3 B1 C1 VGND VNB VPB VPWR X
.ends

* Black-box entry subcircuit for sky130_fd_sc_hd__o211a_1 abstract view
.subckt sky130_fd_sc_hd__o211a_1 A1 A2 B1 C1 VGND VNB VPB VPWR X
.ends

* Black-box entry subcircuit for sky130_fd_sc_hd__or2_1 abstract view
.subckt sky130_fd_sc_hd__or2_1 A B VGND VNB VPB VPWR X
.ends

* Black-box entry subcircuit for sky130_fd_sc_hd__nand2b_4 abstract view
.subckt sky130_fd_sc_hd__nand2b_4 A_N B VGND VNB VPB VPWR Y
.ends

* Black-box entry subcircuit for sky130_fd_sc_hd__clkinvlp_4 abstract view
.subckt sky130_fd_sc_hd__clkinvlp_4 A VGND VNB VPB VPWR Y
.ends

* Black-box entry subcircuit for sky130_fd_sc_hd__a2bb2o_1 abstract view
.subckt sky130_fd_sc_hd__a2bb2o_1 A1_N A2_N B1 B2 VGND VNB VPB VPWR X
.ends

* Black-box entry subcircuit for sky130_fd_sc_hd__and2b_1 abstract view
.subckt sky130_fd_sc_hd__and2b_1 A_N B VGND VNB VPB VPWR X
.ends

* Black-box entry subcircuit for sky130_fd_sc_hd__and2b_2 abstract view
.subckt sky130_fd_sc_hd__and2b_2 A_N B VGND VNB VPB VPWR X
.ends

* Black-box entry subcircuit for sky130_fd_sc_hd__clkbuf_8 abstract view
.subckt sky130_fd_sc_hd__clkbuf_8 A VGND VNB VPB VPWR X
.ends

* Black-box entry subcircuit for sky130_fd_sc_hd__clkbuf_4 abstract view
.subckt sky130_fd_sc_hd__clkbuf_4 A VGND VNB VPB VPWR X
.ends

* Black-box entry subcircuit for sky130_fd_sc_hd__or4b_1 abstract view
.subckt sky130_fd_sc_hd__or4b_1 A B C D_N VGND VNB VPB VPWR X
.ends

* Black-box entry subcircuit for sky130_fd_sc_hd__dlxtn_1 abstract view
.subckt sky130_fd_sc_hd__dlxtn_1 D GATE_N VGND VNB VPB VPWR Q
.ends

* Black-box entry subcircuit for sky130_fd_sc_hd__a21o_1 abstract view
.subckt sky130_fd_sc_hd__a21o_1 A1 A2 B1 VGND VNB VPB VPWR X
.ends

* Black-box entry subcircuit for sky130_fd_sc_hd__bufinv_16 abstract view
.subckt sky130_fd_sc_hd__bufinv_16 A VGND VNB VPB VPWR Y
.ends

* Black-box entry subcircuit for sky130_fd_sc_hd__o22a_1 abstract view
.subckt sky130_fd_sc_hd__o22a_1 A1 A2 B1 B2 VGND VNB VPB VPWR X
.ends

* Black-box entry subcircuit for sky130_fd_sc_hd__or2_2 abstract view
.subckt sky130_fd_sc_hd__or2_2 A B VGND VNB VPB VPWR X
.ends

* Black-box entry subcircuit for sky130_fd_sc_hd__clkbuf_2 abstract view
.subckt sky130_fd_sc_hd__clkbuf_2 A VGND VNB VPB VPWR X
.ends

* Black-box entry subcircuit for sky130_fd_sc_hd__a211o_1 abstract view
.subckt sky130_fd_sc_hd__a211o_1 A1 A2 B1 C1 VGND VNB VPB VPWR X
.ends

* Black-box entry subcircuit for sky130_fd_sc_hd__o31ai_1 abstract view
.subckt sky130_fd_sc_hd__o31ai_1 A1 A2 A3 B1 VGND VNB VPB VPWR Y
.ends

* Black-box entry subcircuit for sky130_fd_sc_hd__dlxtn_2 abstract view
.subckt sky130_fd_sc_hd__dlxtn_2 D GATE_N VGND VNB VPB VPWR Q
.ends

* Black-box entry subcircuit for sky130_fd_sc_hd__a32o_1 abstract view
.subckt sky130_fd_sc_hd__a32o_1 A1 A2 A3 B1 B2 VGND VNB VPB VPWR X
.ends

* Black-box entry subcircuit for sky130_fd_sc_hd__clkinv_2 abstract view
.subckt sky130_fd_sc_hd__clkinv_2 A VGND VNB VPB VPWR Y
.ends

* Black-box entry subcircuit for sky130_fd_sc_hd__and4bb_1 abstract view
.subckt sky130_fd_sc_hd__and4bb_1 A_N B_N C D VGND VNB VPB VPWR X
.ends

* Black-box entry subcircuit for sky130_fd_sc_hd__inv_2 abstract view
.subckt sky130_fd_sc_hd__inv_2 A VGND VNB VPB VPWR Y
.ends

* Black-box entry subcircuit for sky130_fd_sc_hd__and4_1 abstract view
.subckt sky130_fd_sc_hd__and4_1 A B C D VGND VNB VPB VPWR X
.ends

* Black-box entry subcircuit for sky130_fd_sc_hd__clkbuf_1 abstract view
.subckt sky130_fd_sc_hd__clkbuf_1 A VGND VNB VPB VPWR X
.ends

* Black-box entry subcircuit for sky130_fd_sc_hd__or3b_1 abstract view
.subckt sky130_fd_sc_hd__or3b_1 A B C_N VGND VNB VPB VPWR X
.ends

* Black-box entry subcircuit for sky130_fd_sc_hd__o311a_1 abstract view
.subckt sky130_fd_sc_hd__o311a_1 A1 A2 A3 B1 C1 VGND VNB VPB VPWR X
.ends

* Black-box entry subcircuit for sky130_fd_sc_hd__a31o_1 abstract view
.subckt sky130_fd_sc_hd__a31o_1 A1 A2 A3 B1 VGND VNB VPB VPWR X
.ends

* Black-box entry subcircuit for sky130_fd_sc_hd__a221oi_1 abstract view
.subckt sky130_fd_sc_hd__a221oi_1 A1 A2 B1 B2 C1 VGND VNB VPB VPWR Y
.ends

* Black-box entry subcircuit for sky130_fd_sc_hd__o21a_1 abstract view
.subckt sky130_fd_sc_hd__o21a_1 A1 A2 B1 VGND VNB VPB VPWR X
.ends

* Black-box entry subcircuit for sky130_fd_sc_hd__xor2_1 abstract view
.subckt sky130_fd_sc_hd__xor2_1 A B VGND VNB VPB VPWR X
.ends

* Black-box entry subcircuit for sky130_fd_sc_hd__nand2b_1 abstract view
.subckt sky130_fd_sc_hd__nand2b_1 A_N B VGND VNB VPB VPWR Y
.ends

* Black-box entry subcircuit for sky130_fd_sc_hd__nand3_1 abstract view
.subckt sky130_fd_sc_hd__nand3_1 A B C VGND VNB VPB VPWR Y
.ends

* Black-box entry subcircuit for sky130_fd_sc_hd__xnor2_1 abstract view
.subckt sky130_fd_sc_hd__xnor2_1 A B VGND VNB VPB VPWR Y
.ends

* Black-box entry subcircuit for sky130_fd_sc_hd__dfxtp_2 abstract view
.subckt sky130_fd_sc_hd__dfxtp_2 CLK D VGND VNB VPB VPWR Q
.ends

* Black-box entry subcircuit for sky130_fd_sc_hd__nand2_4 abstract view
.subckt sky130_fd_sc_hd__nand2_4 A B VGND VNB VPB VPWR Y
.ends

* Black-box entry subcircuit for sky130_fd_sc_hd__o21ba_1 abstract view
.subckt sky130_fd_sc_hd__o21ba_1 A1 A2 B1_N VGND VNB VPB VPWR X
.ends

.subckt serdes_8bit VGND VPWR bus_free_flag clk data_8bit_in[0] data_8bit_in[1] data_8bit_in[2]
+ data_8bit_in[3] data_8bit_in[4] data_8bit_in[5] data_8bit_in[6] data_8bit_in[7]
+ data_8bit_out[0] data_8bit_out[1] data_8bit_out[2] data_8bit_out[3] data_8bit_out[4]
+ data_8bit_out[5] data_8bit_out[6] data_8bit_out[7] data_en rst_n
XTAP_TAPCELL_ROW_24_139 VGND VPWR sky130_fd_sc_hd__tapvpwrvgnd_1
XFILLER_22_177 VGND VGND VPWR VPWR sky130_fd_sc_hd__fill_1
XFILLER_22_122 VGND VGND VPWR VPWR sky130_fd_sc_hd__decap_3
X_363_ _092_ _093_ data_8b_out\[7\] VGND VGND VPWR VPWR _191_ sky130_fd_sc_hd__o21ai_1
XFILLER_13_111 VGND VGND VPWR VPWR sky130_fd_sc_hd__fill_1
X_432_ clknet_3_5__leaf_clk _031_ VGND VGND VPWR VPWR deserializer_u2.temp_5b\[2\]
+ sky130_fd_sc_hd__dfxtp_1
X_294_ _129_ _131_ _133_ VGND VGND VPWR VPWR _141_ sky130_fd_sc_hd__or3_1
XFILLER_9_137 VGND VGND VPWR VPWR sky130_fd_sc_hd__fill_1
XPHY_EDGE_ROW_19_Left_50 VGND VGND VPWR VPWR sky130_fd_sc_hd__decap_3
X_415_ net31 _207_ VGND VGND VPWR VPWR _085_ sky130_fd_sc_hd__and2_1
X_346_ net72 _158_ _177_ net21 VGND VGND VPWR VPWR _046_ sky130_fd_sc_hd__a22o_1
XFILLER_12_65 VGND VGND VPWR VPWR sky130_fd_sc_hd__fill_2
X_277_ net25 net26 deserializer_u1.par_out\[1\] VGND VGND VPWR VPWR _126_ sky130_fd_sc_hd__a21boi_1
XPHY_EDGE_ROW_4_Left_35 VGND VGND VPWR VPWR sky130_fd_sc_hd__decap_3
X_329_ _160_ _161_ data_8b_out\[3\] VGND VGND VPWR VPWR _163_ sky130_fd_sc_hd__a21oi_1
XFILLER_0_57 VPWR VGND VPWR VGND sky130_ef_sc_hd__decap_12
XFILLER_9_77 VGND VGND VPWR VPWR sky130_fd_sc_hd__fill_2
XFILLER_18_75 VGND VGND VPWR VPWR sky130_fd_sc_hd__fill_1
Xhold52 data_10b_out\[7\] VGND VGND VPWR VPWR net83 sky130_fd_sc_hd__dlygate4sd3_1
Xhold63 data_10b_out\[6\] VGND VGND VPWR VPWR net94 sky130_fd_sc_hd__dlygate4sd3_1
Xhold74 _027_ VGND VGND VPWR VPWR net105 sky130_fd_sc_hd__dlygate4sd3_1
Xhold85 deserializer_u1.shift_reg\[2\] VGND VGND VPWR VPWR net116 sky130_fd_sc_hd__dlygate4sd3_1
Xhold30 deserializer_u2.temp_5b\[3\] VGND VGND VPWR VPWR net61 sky130_fd_sc_hd__dlygate4sd3_1
Xhold41 serializer_u2.temp_6b\[2\] VGND VGND VPWR VPWR net72 sky130_fd_sc_hd__dlygate4sd3_1
XFILLER_13_3 VGND VGND VPWR VPWR sky130_fd_sc_hd__decap_3
XTAP_TAPCELL_ROW_27_148 VGND VPWR sky130_fd_sc_hd__tapvpwrvgnd_1
XFILLER_15_10 VGND VGND VPWR VPWR sky130_fd_sc_hd__decap_8
XFILLER_22_134 VGND VGND VPWR VPWR sky130_fd_sc_hd__fill_1
XFILLER_22_101 VGND VGND VPWR VPWR sky130_fd_sc_hd__fill_1
XFILLER_26_20 VGND VGND VPWR VPWR sky130_fd_sc_hd__decap_8
Xclkbuf_3_6__f_clk clknet_0_clk VGND VGND VPWR VPWR clknet_3_6__leaf_clk sky130_fd_sc_hd__clkbuf_16
X_500_ clknet_3_7__leaf_clk _085_ VGND VGND VPWR VPWR deserializer_u1.par_out\[8\]
+ sky130_fd_sc_hd__dfxtp_1
X_362_ net78 _158_ _190_ _094_ VGND VGND VPWR VPWR _049_ sky130_fd_sc_hd__a22o_1
XFILLER_13_167 VGND VGND VPWR VPWR sky130_fd_sc_hd__fill_1
X_293_ _138_ _139_ _105_ VGND VGND VPWR VPWR _140_ sky130_fd_sc_hd__a21oi_1
X_431_ clknet_3_4__leaf_clk _030_ VGND VGND VPWR VPWR deserializer_u2.temp_5b\[1\]
+ sky130_fd_sc_hd__dfxtp_1
XFILLER_10_137 VGND VGND VPWR VPWR sky130_fd_sc_hd__decap_3
XFILLER_12_33 VGND VGND VPWR VPWR sky130_fd_sc_hd__fill_2
X_414_ deserializer_u1.shift_reg\[8\] deserializer_u1.par_out\[8\] controller_unit.q\[5\]
+ VGND VGND VPWR VPWR _207_ sky130_fd_sc_hd__mux2_1
XPHY_EDGE_ROW_20_Left_51 VGND VGND VPWR VPWR sky130_fd_sc_hd__decap_3
X_276_ deserializer_u1.par_out\[1\] net26 net25 VGND VGND VPWR VPWR _125_ sky130_fd_sc_hd__and3b_1
XTAP_TAPCELL_ROW_8_89 VGND VPWR sky130_fd_sc_hd__tapvpwrvgnd_1
X_345_ _164_ _168_ _170_ VGND VGND VPWR VPWR _177_ sky130_fd_sc_hd__and3_1
XPHY_EDGE_ROW_21_Right_21 VGND VGND VPWR VPWR sky130_fd_sc_hd__decap_3
XPHY_EDGE_ROW_12_Right_12 VGND VGND VPWR VPWR sky130_fd_sc_hd__decap_3
XPHY_EDGE_ROW_30_Right_30 VGND VGND VPWR VPWR sky130_fd_sc_hd__decap_3
XFILLER_23_65 VGND VGND VPWR VPWR sky130_fd_sc_hd__decap_4
XFILLER_2_111 VGND VGND VPWR VPWR sky130_fd_sc_hd__decap_8
XFILLER_0_69 VPWR VGND VPWR VGND sky130_ef_sc_hd__decap_12
XFILLER_9_12 VPWR VGND VPWR VGND sky130_ef_sc_hd__decap_12
X_259_ net109 net100 _101_ VGND VGND VPWR VPWR _024_ sky130_fd_sc_hd__mux2_1
X_328_ _160_ _161_ VGND VGND VPWR VPWR _162_ sky130_fd_sc_hd__nand2_1
XFILLER_18_10 VPWR VGND VPWR VGND sky130_ef_sc_hd__decap_12
Xhold53 data_10b_out\[5\] VGND VGND VPWR VPWR net84 sky130_fd_sc_hd__dlygate4sd3_1
Xhold20 serializer_u3.shift_reg\[0\] VGND VGND VPWR VPWR net51 sky130_fd_sc_hd__dlygate4sd3_1
XFILLER_20_55 VGND VGND VPWR VPWR sky130_fd_sc_hd__decap_4
Xhold86 deserializer_u1.shift_reg\[7\] VGND VGND VPWR VPWR net117 sky130_fd_sc_hd__dlygate4sd3_1
Xhold64 data_10b_out\[1\] VGND VGND VPWR VPWR net95 sky130_fd_sc_hd__dlygate4sd3_1
Xhold42 net14 VGND VGND VPWR VPWR net73 sky130_fd_sc_hd__dlygate4sd3_1
Xhold75 deserializer_u1.shift_reg\[3\] VGND VGND VPWR VPWR net106 sky130_fd_sc_hd__dlygate4sd3_1
Xhold31 _057_ VGND VGND VPWR VPWR net62 sky130_fd_sc_hd__dlygate4sd3_1
XFILLER_19_162 VGND VGND VPWR VPWR sky130_fd_sc_hd__fill_2
XPHY_EDGE_ROW_6_Right_6 VGND VGND VPWR VPWR sky130_fd_sc_hd__decap_3
X_361_ data_8b_out\[0\] data_8b_out\[4\] _188_ data_8b_out\[3\] _189_ VGND VGND VPWR
+ VPWR _190_ sky130_fd_sc_hd__a221o_1
XFILLER_13_179 VGND VGND VPWR VPWR sky130_fd_sc_hd__decap_3
XFILLER_13_146 VGND VGND VPWR VPWR sky130_fd_sc_hd__fill_2
X_292_ net23 _127_ VGND VGND VPWR VPWR _139_ sky130_fd_sc_hd__nand2_1
X_430_ clknet_3_4__leaf_clk _029_ VGND VGND VPWR VPWR deserializer_u2.temp_5b\[0\]
+ sky130_fd_sc_hd__dfxtp_1
X_413_ net31 _206_ VGND VGND VPWR VPWR _084_ sky130_fd_sc_hd__and2_1
X_344_ net81 _158_ _176_ net21 VGND VGND VPWR VPWR _045_ sky130_fd_sc_hd__a22o_1
X_275_ net22 net24 VGND VGND VPWR VPWR _124_ sky130_fd_sc_hd__nor2_1
XTAP_TAPCELL_ROW_11_100 VGND VPWR sky130_fd_sc_hd__tapvpwrvgnd_1
XFILLER_3_3 VPWR VGND VPWR VGND sky130_ef_sc_hd__decap_12
XFILLER_2_134 VGND VGND VPWR VPWR sky130_fd_sc_hd__fill_1
XFILLER_0_15 VPWR VGND VPWR VGND sky130_ef_sc_hd__decap_12
XFILLER_9_24 VGND VGND VPWR VPWR sky130_fd_sc_hd__decap_6
X_258_ net100 deserializer_u1.shift_reg\[4\] _101_ VGND VGND VPWR VPWR _023_ sky130_fd_sc_hd__mux2_1
X_327_ data_8b_out\[1\] data_8b_out\[0\] data_8b_out\[2\] VGND VGND VPWR VPWR _161_
+ sky130_fd_sc_hd__o21ai_2
XFILLER_18_22 VGND VGND VPWR VPWR sky130_fd_sc_hd__decap_6
XFILLER_20_23 VGND VGND VPWR VPWR sky130_fd_sc_hd__decap_4
XFILLER_29_65 VGND VGND VPWR VPWR sky130_fd_sc_hd__decap_4
Xhold65 controller_unit.counter\[0\] VGND VGND VPWR VPWR net96 sky130_fd_sc_hd__dlygate4sd3_1
XFILLER_28_141 VPWR VGND VPWR VGND sky130_ef_sc_hd__decap_12
Xhold21 _072_ VGND VGND VPWR VPWR net52 sky130_fd_sc_hd__dlygate4sd3_1
Xhold10 _041_ VGND VGND VPWR VPWR net41 sky130_fd_sc_hd__dlygate4sd3_1
Xhold54 serializer_u2.temp_6b\[4\] VGND VGND VPWR VPWR net85 sky130_fd_sc_hd__dlygate4sd3_1
XFILLER_20_6 VGND VGND VPWR VPWR sky130_fd_sc_hd__fill_1
Xhold43 net19 VGND VGND VPWR VPWR net74 sky130_fd_sc_hd__dlygate4sd3_1
Xhold32 deserializer_u1.shift_reg\[0\] VGND VGND VPWR VPWR net63 sky130_fd_sc_hd__dlygate4sd3_1
Xhold87 deserializer_u1.shift_reg\[3\] VGND VGND VPWR VPWR net118 sky130_fd_sc_hd__dlygate4sd3_1
Xhold76 _021_ VGND VGND VPWR VPWR net107 sky130_fd_sc_hd__dlygate4sd3_1
XFILLER_25_166 VGND VGND VPWR VPWR sky130_fd_sc_hd__fill_2
XFILLER_25_111 VGND VGND VPWR VPWR sky130_fd_sc_hd__fill_1
Xoutput11 net11 VGND VGND VPWR VPWR bus_free_flag sky130_fd_sc_hd__buf_2
X_360_ _160_ _180_ data_8b_out\[3\] data_8b_out\[4\] VGND VGND VPWR VPWR _189_ sky130_fd_sc_hd__a211oi_1
XFILLER_13_169 VGND VGND VPWR VPWR sky130_fd_sc_hd__fill_1
XFILLER_7_90 VGND VGND VPWR VPWR sky130_fd_sc_hd__decap_3
X_291_ deserializer_u1.par_out\[5\] deserializer_u1.par_out\[4\] VGND VGND VPWR VPWR
+ _138_ sky130_fd_sc_hd__nor2_1
X_489_ clknet_3_7__leaf_clk _074_ VGND VGND VPWR VPWR controller_unit.counter\[1\]
+ sky130_fd_sc_hd__dfxtp_1
XFILLER_3_15 VPWR VGND VPWR VGND sky130_ef_sc_hd__decap_12
XFILLER_12_57 VGND VGND VPWR VPWR sky130_fd_sc_hd__decap_8
X_412_ net117 deserializer_u1.par_out\[7\] controller_unit.q\[5\] VGND VGND VPWR VPWR
+ _206_ sky130_fd_sc_hd__mux2_1
X_343_ _089_ _090_ _174_ _167_ data_8b_out\[4\] VGND VGND VPWR VPWR _176_ sky130_fd_sc_hd__a311o_1
X_274_ deserializer_u1.par_out\[1\] _118_ _121_ _113_ VGND VGND VPWR VPWR _123_ sky130_fd_sc_hd__o211a_1
XFILLER_2_157 VGND VGND VPWR VPWR sky130_fd_sc_hd__fill_1
XFILLER_0_27 VGND VGND VPWR VPWR sky130_fd_sc_hd__fill_1
XFILLER_29_3 VPWR VGND VPWR VGND sky130_ef_sc_hd__decap_12
X_326_ data_8b_out\[1\] data_8b_out\[0\] VGND VGND VPWR VPWR _160_ sky130_fd_sc_hd__nand2_1
X_257_ net113 net106 _101_ VGND VGND VPWR VPWR _022_ sky130_fd_sc_hd__mux2_1
XPHY_EDGE_ROW_8_Left_39 VGND VGND VPWR VPWR sky130_fd_sc_hd__decap_3
X_309_ deserializer_u1.par_out\[5\] net22 VGND VGND VPWR VPWR _154_ sky130_fd_sc_hd__nand2_1
XFILLER_29_109 VGND VGND VPWR VPWR sky130_fd_sc_hd__decap_3
XFILLER_28_153 VPWR VGND VPWR VGND sky130_ef_sc_hd__decap_12
Xhold22 controller_unit.counter\[3\] VGND VGND VPWR VPWR net53 sky130_fd_sc_hd__dlygate4sd3_1
Xhold77 deserializer_u1.shift_reg\[8\] VGND VGND VPWR VPWR net108 sky130_fd_sc_hd__dlygate4sd3_1
Xhold11 serializer_u3.shift_reg\[2\] VGND VGND VPWR VPWR net42 sky130_fd_sc_hd__dlygate4sd3_1
Xhold44 serializer_u2.temp_6b\[0\] VGND VGND VPWR VPWR net75 sky130_fd_sc_hd__dlygate4sd3_1
Xhold55 data_10b_out\[2\] VGND VGND VPWR VPWR net86 sky130_fd_sc_hd__dlygate4sd3_1
Xhold33 _019_ VGND VGND VPWR VPWR net64 sky130_fd_sc_hd__dlygate4sd3_1
Xhold66 net11 VGND VGND VPWR VPWR net97 sky130_fd_sc_hd__dlygate4sd3_1
Xhold88 deserializer_u1.shift_reg\[5\] VGND VGND VPWR VPWR net119 sky130_fd_sc_hd__dlygate4sd3_1
XFILLER_25_123 VGND VGND VPWR VPWR sky130_fd_sc_hd__fill_2
XFILLER_15_68 VGND VGND VPWR VPWR sky130_fd_sc_hd__fill_1
Xoutput12 net12 VGND VGND VPWR VPWR data_8bit_out[0] sky130_fd_sc_hd__buf_2
XFILLER_30_181 VGND VGND VPWR VPWR sky130_fd_sc_hd__fill_1
X_488_ clknet_3_6__leaf_clk _073_ VGND VGND VPWR VPWR controller_unit.counter\[0\]
+ sky130_fd_sc_hd__dfxtp_1
X_290_ net99 _098_ _104_ _137_ VGND VGND VPWR VPWR _030_ sky130_fd_sc_hd__a22o_1
XFILLER_3_27 VPWR VGND VPWR VGND sky130_ef_sc_hd__decap_12
XFILLER_8_141 VGND VGND VPWR VPWR sky130_fd_sc_hd__fill_1
XFILLER_12_25 VGND VGND VPWR VPWR sky130_fd_sc_hd__decap_3
X_411_ net31 _205_ VGND VGND VPWR VPWR _083_ sky130_fd_sc_hd__and2_1
X_342_ data_8b_out\[3\] data_8b_out\[0\] VGND VGND VPWR VPWR _175_ sky130_fd_sc_hd__or2_1
XFILLER_5_122 VGND VGND VPWR VPWR sky130_fd_sc_hd__fill_1
X_273_ net24 deserializer_u1.par_out\[2\] VGND VGND VPWR VPWR _122_ sky130_fd_sc_hd__nand2_1
XPHY_EDGE_ROW_24_Left_55 VGND VGND VPWR VPWR sky130_fd_sc_hd__decap_3
X_256_ net106 deserializer_u1.shift_reg\[2\] _101_ VGND VGND VPWR VPWR _021_ sky130_fd_sc_hd__mux2_1
X_325_ controller_unit.q\[3\] net28 VGND VGND VPWR VPWR _159_ sky130_fd_sc_hd__nand2b_4
Xclkload0 clknet_3_0__leaf_clk VGND VGND VPWR VPWR clkload0/Y sky130_fd_sc_hd__clkinvlp_4
X_239_ deserializer_u1.shift_reg\[9\] deserializer_u1.par_out\[9\] net27 VGND VGND
+ VPWR VPWR _102_ sky130_fd_sc_hd__mux2_1
X_308_ _105_ _153_ net61 _098_ VGND VGND VPWR VPWR _032_ sky130_fd_sc_hd__a2bb2o_1
Xhold67 controller_unit.counter\[1\] VGND VGND VPWR VPWR net98 sky130_fd_sc_hd__dlygate4sd3_1
Xhold45 data_10b_out\[8\] VGND VGND VPWR VPWR net76 sky130_fd_sc_hd__dlygate4sd3_1
XFILLER_28_165 VPWR VGND VPWR VGND sky130_ef_sc_hd__decap_12
Xhold12 _036_ VGND VGND VPWR VPWR net43 sky130_fd_sc_hd__dlygate4sd3_1
Xhold23 deserializer_u2.temp_3b\[2\] VGND VGND VPWR VPWR net54 sky130_fd_sc_hd__dlygate4sd3_1
Xhold56 net12 VGND VGND VPWR VPWR net87 sky130_fd_sc_hd__dlygate4sd3_1
Xhold78 deserializer_u1.shift_reg\[6\] VGND VGND VPWR VPWR net109 sky130_fd_sc_hd__dlygate4sd3_1
Xhold34 deserializer_u2.temp_5b\[4\] VGND VGND VPWR VPWR net65 sky130_fd_sc_hd__dlygate4sd3_1
XFILLER_25_146 VPWR VGND VPWR VGND sky130_ef_sc_hd__decap_12
XFILLER_25_113 VGND VGND VPWR VPWR sky130_fd_sc_hd__fill_2
Xoutput13 net13 VGND VGND VPWR VPWR data_8bit_out[1] sky130_fd_sc_hd__buf_2
XPHY_EDGE_ROW_11_Left_42 VGND VGND VPWR VPWR sky130_fd_sc_hd__decap_3
XPHY_EDGE_ROW_28_Right_28 VGND VGND VPWR VPWR sky130_fd_sc_hd__decap_3
XFILLER_21_90 VGND VGND VPWR VPWR sky130_fd_sc_hd__fill_1
XPHY_EDGE_ROW_19_Right_19 VGND VGND VPWR VPWR sky130_fd_sc_hd__decap_3
XTAP_TAPCELL_ROW_18_119 VGND VPWR sky130_fd_sc_hd__tapvpwrvgnd_1
XFILLER_16_113 VGND VGND VPWR VPWR sky130_fd_sc_hd__fill_1
Xclkbuf_3_1__f_clk clknet_0_clk VGND VGND VPWR VPWR clknet_3_1__leaf_clk sky130_fd_sc_hd__clkbuf_16
XFILLER_3_39 VPWR VGND VPWR VGND sky130_ef_sc_hd__decap_12
X_487_ clknet_3_6__leaf_clk net52 VGND VGND VPWR VPWR deserializer_u1.ser_in sky130_fd_sc_hd__dfxtp_1
XTAP_TAPCELL_ROW_20_125 VGND VPWR sky130_fd_sc_hd__tapvpwrvgnd_1
X_341_ _091_ data_8b_out\[0\] VGND VGND VPWR VPWR _174_ sky130_fd_sc_hd__nor2_1
X_410_ deserializer_u1.shift_reg\[6\] deserializer_u1.par_out\[6\] net27 VGND VGND
+ VPWR VPWR _205_ sky130_fd_sc_hd__mux2_1
X_272_ net22 net23 VGND VGND VPWR VPWR _121_ sky130_fd_sc_hd__and2b_1
XFILLER_5_145 VGND VGND VPWR VPWR sky130_fd_sc_hd__fill_2
XFILLER_13_80 VGND VGND VPWR VPWR sky130_fd_sc_hd__decap_3
XFILLER_0_29 VPWR VGND VPWR VGND sky130_ef_sc_hd__decap_12
X_255_ deserializer_u1.shift_reg\[2\] net110 _101_ VGND VGND VPWR VPWR _020_ sky130_fd_sc_hd__mux2_1
X_324_ controller_unit.q\[3\] net28 VGND VGND VPWR VPWR _158_ sky130_fd_sc_hd__and2b_2
XFILLER_1_181 VGND VGND VPWR VPWR sky130_fd_sc_hd__fill_1
XTAP_TAPCELL_ROW_9_92 VGND VPWR sky130_fd_sc_hd__tapvpwrvgnd_1
XFILLER_1_3 VPWR VGND VPWR VGND sky130_ef_sc_hd__decap_12
Xclkload1 clknet_3_1__leaf_clk VGND VGND VPWR VPWR clkload1/X sky130_fd_sc_hd__clkbuf_8
X_307_ _131_ _151_ _152_ _149_ VGND VGND VPWR VPWR _153_ sky130_fd_sc_hd__o211a_1
X_238_ net28 _088_ VGND VGND VPWR VPWR _014_ sky130_fd_sc_hd__and2_1
XFILLER_28_177 VGND VGND VPWR VPWR sky130_fd_sc_hd__decap_4
XFILLER_28_122 VGND VGND VPWR VPWR sky130_fd_sc_hd__fill_1
Xhold24 serializer_u2.temp_4b\[2\] VGND VGND VPWR VPWR net55 sky130_fd_sc_hd__dlygate4sd3_1
Xhold13 serializer_u3.shift_reg\[8\] VGND VGND VPWR VPWR net44 sky130_fd_sc_hd__dlygate4sd3_1
Xhold46 data_10b_out\[3\] VGND VGND VPWR VPWR net77 sky130_fd_sc_hd__dlygate4sd3_1
Xhold57 _054_ VGND VGND VPWR VPWR net88 sky130_fd_sc_hd__dlygate4sd3_1
Xhold68 deserializer_u2.temp_5b\[1\] VGND VGND VPWR VPWR net99 sky130_fd_sc_hd__dlygate4sd3_1
Xhold79 deserializer_u1.shift_reg\[1\] VGND VGND VPWR VPWR net110 sky130_fd_sc_hd__dlygate4sd3_1
Xhold35 net13 VGND VGND VPWR VPWR net66 sky130_fd_sc_hd__dlygate4sd3_1
XFILLER_25_169 VPWR VGND VPWR VGND sky130_ef_sc_hd__decap_12
XFILLER_25_158 VGND VGND VPWR VPWR sky130_fd_sc_hd__decap_8
XFILLER_16_136 VGND VGND VPWR VPWR sky130_fd_sc_hd__decap_4
Xoutput14 net14 VGND VGND VPWR VPWR data_8bit_out[2] sky130_fd_sc_hd__buf_2
XFILLER_26_47 VGND VGND VPWR VPWR sky130_fd_sc_hd__fill_2
XTAP_TAPCELL_ROW_23_134 VGND VPWR sky130_fd_sc_hd__tapvpwrvgnd_1
X_486_ clknet_3_2__leaf_clk _071_ VGND VGND VPWR VPWR data_10b_out\[9\] sky130_fd_sc_hd__dfxtp_1
XTAP_TAPCELL_ROW_20_126 VGND VPWR sky130_fd_sc_hd__tapvpwrvgnd_1
X_340_ net75 _158_ _173_ net21 VGND VGND VPWR VPWR _044_ sky130_fd_sc_hd__a22o_1
X_271_ net22 _119_ VGND VGND VPWR VPWR _120_ sky130_fd_sc_hd__and2_1
X_469_ clknet_3_4__leaf_clk net88 VGND VGND VPWR VPWR net12 sky130_fd_sc_hd__dfxtp_1
XFILLER_4_83 VGND VGND VPWR VPWR sky130_fd_sc_hd__fill_1
X_323_ data_10b_out\[8\] net20 _157_ net32 VGND VGND VPWR VPWR _043_ sky130_fd_sc_hd__a22o_1
X_254_ deserializer_u1.shift_reg\[1\] net63 _101_ VGND VGND VPWR VPWR _019_ sky130_fd_sc_hd__mux2_1
XTAP_TAPCELL_ROW_0_62 VGND VPWR sky130_fd_sc_hd__tapvpwrvgnd_1
XTAP_TAPCELL_ROW_9_93 VGND VPWR sky130_fd_sc_hd__tapvpwrvgnd_1
Xclkload2 clknet_3_3__leaf_clk VGND VGND VPWR VPWR clkload2/X sky130_fd_sc_hd__clkbuf_4
X_237_ _096_ _101_ VGND VGND VPWR VPWR _000_ sky130_fd_sc_hd__nor2_1
X_306_ deserializer_u1.par_out\[5\] _122_ net22 _115_ VGND VGND VPWR VPWR _152_ sky130_fd_sc_hd__or4b_1
Xhold58 serializer_u2.temp_4b\[0\] VGND VGND VPWR VPWR net89 sky130_fd_sc_hd__dlygate4sd3_1
XFILLER_29_69 VGND VGND VPWR VPWR sky130_fd_sc_hd__fill_1
XFILLER_29_36 VGND VGND VPWR VPWR sky130_fd_sc_hd__decap_4
Xhold14 _042_ VGND VGND VPWR VPWR net45 sky130_fd_sc_hd__dlygate4sd3_1
Xhold25 serializer_u2.temp_4b\[3\] VGND VGND VPWR VPWR net56 sky130_fd_sc_hd__dlygate4sd3_1
XFILLER_20_27 VGND VGND VPWR VPWR sky130_fd_sc_hd__fill_1
Xhold47 serializer_u2.temp_6b\[5\] VGND VGND VPWR VPWR net78 sky130_fd_sc_hd__dlygate4sd3_1
XFILLER_1_73 VGND VGND VPWR VPWR sky130_fd_sc_hd__fill_1
XFILLER_1_51 VGND VGND VPWR VPWR sky130_fd_sc_hd__decap_4
Xhold36 _055_ VGND VGND VPWR VPWR net67 sky130_fd_sc_hd__dlygate4sd3_1
Xhold69 deserializer_u1.shift_reg\[5\] VGND VGND VPWR VPWR net100 sky130_fd_sc_hd__dlygate4sd3_1
XFILLER_6_29 VPWR VGND VPWR VGND sky130_ef_sc_hd__decap_12
XFILLER_10_82 VGND VGND VPWR VPWR sky130_fd_sc_hd__fill_2
XTAP_TAPCELL_ROW_6_83 VGND VPWR sky130_fd_sc_hd__tapvpwrvgnd_1
XTAP_TAPCELL_ROW_26_143 VGND VPWR sky130_fd_sc_hd__tapvpwrvgnd_1
XPHY_EDGE_ROW_1_Right_1 VGND VGND VPWR VPWR sky130_fd_sc_hd__decap_3
Xoutput15 net15 VGND VGND VPWR VPWR data_8bit_out[3] sky130_fd_sc_hd__buf_2
XFILLER_21_81 VGND VGND VPWR VPWR sky130_fd_sc_hd__fill_1
XTAP_TAPCELL_ROW_23_135 VGND VPWR sky130_fd_sc_hd__tapvpwrvgnd_1
XFILLER_21_173 VGND VGND VPWR VPWR sky130_fd_sc_hd__fill_1
XFILLER_13_107 VGND VGND VPWR VPWR sky130_fd_sc_hd__decap_4
X_485_ clknet_3_2__leaf_clk _070_ VGND VGND VPWR VPWR data_10b_out\[8\] sky130_fd_sc_hd__dfxtp_1
XFILLER_8_111 VGND VGND VPWR VPWR sky130_fd_sc_hd__fill_2
XTAP_TAPCELL_ROW_20_127 VGND VPWR sky130_fd_sc_hd__tapvpwrvgnd_1
XFILLER_12_17 VGND VGND VPWR VPWR sky130_fd_sc_hd__decap_8
X_270_ net25 net26 net23 VGND VGND VPWR VPWR _119_ sky130_fd_sc_hd__o21ai_1
XFILLER_5_169 VGND VGND VPWR VPWR sky130_fd_sc_hd__decap_3
XFILLER_27_91 VGND VGND VPWR VPWR sky130_fd_sc_hd__decap_4
X_468_ _013_ _014_ VGND VGND VPWR VPWR data_8b_out\[7\] sky130_fd_sc_hd__dlxtn_1
X_399_ net28 _199_ VGND VGND VPWR VPWR _077_ sky130_fd_sc_hd__and2_1
X_322_ data_10b_out\[7\] net20 _157_ net44 VGND VGND VPWR VPWR _042_ sky130_fd_sc_hd__a22o_1
XFILLER_2_128 VGND VGND VPWR VPWR sky130_fd_sc_hd__decap_6
Xclkbuf_3_7__f_clk clknet_0_clk VGND VGND VPWR VPWR clknet_3_7__leaf_clk sky130_fd_sc_hd__clkbuf_16
X_253_ net54 _098_ _112_ VGND VGND VPWR VPWR _018_ sky130_fd_sc_hd__a21o_1
XTAP_TAPCELL_ROW_0_63 VGND VPWR sky130_fd_sc_hd__tapvpwrvgnd_1
XTAP_TAPCELL_ROW_9_94 VGND VPWR sky130_fd_sc_hd__tapvpwrvgnd_1
Xclkload3 clknet_3_4__leaf_clk VGND VGND VPWR VPWR clkload3/Y sky130_fd_sc_hd__bufinv_16
XPHY_EDGE_ROW_28_Left_59 VGND VGND VPWR VPWR sky130_fd_sc_hd__decap_3
X_236_ net29 net48 VGND VGND VPWR VPWR _002_ sky130_fd_sc_hd__and2_1
X_305_ net26 _122_ _150_ net24 VGND VGND VPWR VPWR _151_ sky130_fd_sc_hd__o22a_1
XFILLER_29_15 VGND VGND VPWR VPWR sky130_fd_sc_hd__decap_4
Xhold48 deserializer_u1.ser_in VGND VGND VPWR VPWR net79 sky130_fd_sc_hd__dlygate4sd3_1
Xhold15 serializer_u3.shift_reg\[5\] VGND VGND VPWR VPWR net46 sky130_fd_sc_hd__dlygate4sd3_1
Xhold37 net18 VGND VGND VPWR VPWR net68 sky130_fd_sc_hd__dlygate4sd3_1
XFILLER_19_113 VGND VGND VPWR VPWR sky130_fd_sc_hd__decap_8
XFILLER_19_102 VGND VGND VPWR VPWR sky130_fd_sc_hd__fill_2
Xhold26 deserializer_u2.temp_5b\[2\] VGND VGND VPWR VPWR net57 sky130_fd_sc_hd__dlygate4sd3_1
Xhold59 net16 VGND VGND VPWR VPWR net90 sky130_fd_sc_hd__dlygate4sd3_1
XTAP_TAPCELL_ROW_29_152 VGND VPWR sky130_fd_sc_hd__tapvpwrvgnd_1
X_219_ controller_unit.load_en net30 VGND VGND VPWR VPWR _097_ sky130_fd_sc_hd__and2_1
XTAP_TAPCELL_ROW_6_84 VGND VPWR sky130_fd_sc_hd__tapvpwrvgnd_1
XTAP_TAPCELL_ROW_26_144 VGND VPWR sky130_fd_sc_hd__tapvpwrvgnd_1
Xoutput16 net16 VGND VGND VPWR VPWR data_8bit_out[4] sky130_fd_sc_hd__buf_2
Xclkbuf_0_clk clk VGND VGND VPWR VPWR clknet_0_clk sky130_fd_sc_hd__clkbuf_16
XFILLER_30_141 VPWR VGND VPWR VGND sky130_ef_sc_hd__decap_12
XPHY_EDGE_ROW_24_Right_24 VGND VGND VPWR VPWR sky130_fd_sc_hd__decap_3
XTAP_TAPCELL_ROW_23_136 VGND VPWR sky130_fd_sc_hd__tapvpwrvgnd_1
XPHY_EDGE_ROW_15_Right_15 VGND VGND VPWR VPWR sky130_fd_sc_hd__decap_3
XPHY_EDGE_ROW_15_Left_46 VGND VGND VPWR VPWR sky130_fd_sc_hd__decap_3
XFILLER_7_73 VGND VGND VPWR VPWR sky130_fd_sc_hd__decap_6
X_484_ clknet_3_3__leaf_clk _069_ VGND VGND VPWR VPWR data_10b_out\[7\] sky130_fd_sc_hd__dfxtp_1
XFILLER_12_141 VGND VGND VPWR VPWR sky130_fd_sc_hd__decap_3
XTAP_TAPCELL_ROW_3_74 VGND VPWR sky130_fd_sc_hd__tapvpwrvgnd_1
XFILLER_5_137 VGND VGND VPWR VPWR sky130_fd_sc_hd__decap_8
XFILLER_27_81 VGND VGND VPWR VPWR sky130_fd_sc_hd__fill_1
X_467_ _012_ _014_ VGND VGND VPWR VPWR data_8b_out\[6\] sky130_fd_sc_hd__dlxtn_1
X_398_ net63 net26 net27 VGND VGND VPWR VPWR _199_ sky130_fd_sc_hd__mux2_1
XFILLER_4_41 VPWR VGND VPWR VGND sky130_ef_sc_hd__decap_12
X_321_ data_10b_out\[6\] net20 _157_ net40 VGND VGND VPWR VPWR _041_ sky130_fd_sc_hd__a22o_1
X_252_ deserializer_u1.par_out\[8\] deserializer_u1.par_out\[6\] _111_ VGND VGND VPWR
+ VPWR _112_ sky130_fd_sc_hd__a21oi_1
XTAP_TAPCELL_ROW_0_64 VGND VPWR sky130_fd_sc_hd__tapvpwrvgnd_1
Xclkload4 clknet_3_5__leaf_clk VGND VGND VPWR VPWR clkload4/X sky130_fd_sc_hd__clkbuf_8
XPHY_EDGE_ROW_3_Left_34 VGND VGND VPWR VPWR sky130_fd_sc_hd__decap_3